19
writing mols
  C     2.671647356   0.285451231  -0.992924457
  C     1.688799609  -0.643087543  -0.184262396
  C     0.332191485  -0.173317739   0.278177306
  C    -0.773035009  -1.179859486   0.616949288
  C    -2.073328170  -0.592452101   0.194853374
  C    -1.727449135   0.952545329   0.263357913
  C    -0.236696255   1.027109979   0.291355019
  O     0.468377387   2.206769942   0.400246353
  O     1.942126034  -1.835118307   0.045458957
  H     3.400029127  -0.389697486  -1.368090059
  H     3.162056052   1.057609022  -0.332834301
  H     2.098244342   0.739641012  -1.842207147
  H    -0.514470749  -2.069173451   0.141906884
  H    -0.813363400  -1.273402467   1.685055837
  H    -2.826531517  -0.975546711   0.834582867
  H    -2.285656858  -0.804194831  -0.840039098
  H    -2.135842570   1.473350890  -0.628383752
  H    -2.113052008   1.358191444   1.246048956
  H    -0.089731072   2.964094081   0.183284264
