19
writing mols
  C     2.744875309   0.367138318  -0.615654751
  C     1.790038180  -0.739077118  -0.097925394
  C     0.380973058  -0.315922799   0.061740630
  C    -0.760639287  -1.345987570   0.215978421
  C    -2.135130740  -0.519923971   0.063959692
  C    -1.650412153   0.961493785   0.373315625
  C    -0.132753265   0.957729947   0.188596656
  O     0.554677141   2.137487069   0.157045006
  O     2.188565181  -1.860536273   0.160744351
  H     3.817577320   0.044105888  -0.511217998
  H     2.623903379   1.253723006  -0.044371477
  H     2.541563614   0.541330040  -1.639873873
  H    -0.610074025  -2.238769707  -0.366315618
  H    -0.647769945  -1.868984791   1.215472169
  H    -2.810509944  -0.868542650   0.794773396
  H    -2.584144754  -0.605349454  -0.937432932
  H    -2.165498218   1.616048408  -0.310050426
  H    -1.915963833   1.235851689   1.373212900
  H    -2.001844745   1.975070093   0.744952751
