19
writing mols
  C     2.668370721   0.441552828  -0.266893785
  C     1.743515807  -0.692968786   0.043788738
  C     0.276538557  -0.370602263   0.044143639
  C    -0.800621693  -1.435468350  -0.030361609
  C    -2.191503353  -0.734772018  -0.141161521
  C    -1.850668156   0.780150627   0.023469871
  C    -0.340611968   0.845052340  -0.001210959
  O     0.209882245   2.097549493   0.007508833
  O     2.120909262  -1.819807420   0.152304261
  H     3.695739975   0.066119139   0.021873371
  H     2.432121221   1.342663844   0.323536007
  H     2.565892927   0.716457199  -1.291408464
  H    -0.628980720  -2.053311008  -0.900736031
  H    -0.690239515  -2.133070120   0.823437816
  H    -2.898818062  -1.047848438   0.642728413
  H    -2.648798102  -1.072859195  -1.064631375
  H    -2.336488786   1.421313345  -0.734129951
  H    -2.115717008   1.142156047   0.975962581
  H    -1.820205964   1.444894656  -0.654721341
