19
writing mols
  C     2.703880444   0.556903087  -0.487108305
  C     1.701705997  -0.531389950  -0.215489239
  C     0.291680509  -0.284798275  -0.135849905
  C    -0.790498451  -1.389404990  -0.040268877
  C    -2.184179510  -0.711272393  -0.083169273
  C    -1.780990912   0.796133933  -0.206712995
  C    -0.294908728   0.924500086  -0.140147973
  O     0.291786284   2.139843493   0.000628309
  O     1.999846631  -1.737323854  -0.046681687
  H     3.699772463   0.191245967  -0.145336491
  H     2.264317123   1.506230010  -0.236891024
  H     2.799594968   0.556742105  -1.600055918
  H    -0.577072146  -2.112803383  -0.788287333
  H    -0.653975683  -1.901787804   0.969811113
  H    -2.682394964  -0.937007703   0.840456454
  H    -2.825843857  -1.049997580  -0.956302270
  H    -2.155217868   1.348706196  -1.050331858
  H    -2.183259356   1.351457944   0.696524645
  H    -1.925019270  -0.230253950   0.031234492
